*SRC=2N3904;QN3904;BJTs NPN;Switching;60V 200mA
.MODEL QN3904 NPN(IS=1.4E-14 BF=300 VAF=100 IKF=.025 ISE=3E-13
+ BR=7.5  RC=2.4  XTB=1.5 NE=1.5
+ CJE=4.5PF TR=21E-9 CJC=3.5PF TF=4E-10 KF=9E-16 AF=1.0)  
*PINOUT TO-92 3 2 1
